#------------------------------------------------------------------------------
# $Date: 2024-06-16 16:07:12 (Wed, 16 Jun 2024) $
# This file is available in the Crystallography Open Database (COD),
# http://www.crystallography.net/
# _author: Cao Bin (HKUST.GZ), bcao686@connect.hkust-gz.edu.cn
# parsed by WPEM: https://bin-cao.github.io/caobin/-wpem
# All data on this site have been placed in the public domain by the
# contributors.
#------------------------------------------------------------------------------
data_LiCo0.333Ni0.333Mn0.333O2
_symmetry_space_group_name_H-M      'R -3 m :H'
_cell_length_a                      2.8587
_cell_length_b                      2.8587
_cell_length_c                      14.2851
_cell_angle_alpha                   90.0
_cell_angle_beta                    90.0
_cell_angle_gamma                   120.0
_space_group_IT_number              166  
_chemical_formula_structural        'Li Co0.333 Ni0.333 Mn0.333 O2'
_chemical_formula_sum               'Co0.333 Li Mn0.333 Ni0.333 O2'
_cell_volume                        101.09998239203789
_cell_formula_units_Z               3

loop_
_symmetry_equiv_pos_as_xyz
x,y,z
-y,x-y,z
-x+y,-x,z
y,x,-z
-x,-x+y,-z
x-y,-y,-z
-x,-y,-z
y,-x+y,-z
x-y,x,-z
-y,-x,z
x,x-y,z
-x+y,y,z
x+2/3,y+1/3,z+1/3
-y+2/3,x-y+1/3,z+1/3
-x+y+2/3,-x+1/3,z+1/3
y+2/3,x+1/3,-z+1/3
-x+2/3,-x+y+1/3,-z+1/3
x-y+2/3,-y+1/3,-z+1/3
-x+2/3,-y+1/3,-z+1/3
y+2/3,-x+y+1/3,-z+1/3
x-y+2/3,x+1/3,-z+1/3
-y+2/3,-x+1/3,z+1/3
x+2/3,x-y+1/3,z+1/3
-x+y+2/3,y+1/3,z+1/3
x+1/3,y+2/3,z+2/3
-y+1/3,x-y+2/3,z+2/3
-x+y+1/3,-x+2/3,z+2/3
y+1/3,x+2/3,-z+2/3
-x+1/3,-x+y+2/3,-z+2/3
x-y+1/3,-y+2/3,-z+2/3
-x+1/3,-y+2/3,-z+2/3
y+1/3,-x+y+2/3,-z+2/3
x-y+1/3,x+2/3,-z+2/3
-y+1/3,-x+2/3,z+2/3
x+1/3,x-y+2/3,z+2/3
-x+y+1/3,y+2/3,z+2/3
loop_
_atom_site_label
_atom_site_type_symbol
_atom_site_fract_x
_atom_site_fract_y
_atom_site_fract_z
_atom_site_occupancy
_atom_site_U_iso_or_equiv
Li1 Li+1 0 0.00000000 0.00000000 0.97442164 0.0
Co1 Co+3 0 0.00000000 0.50000000 0.33333333 0.0
Ni2 Ni+2 0 0.00000000 0.00000000 0.02500000 0.0
Mn1 Mn+4 0 0.00000000 0.50000000 0.33333333 0.0
Ni1 Ni+2 0 0.00000000 0.50000000 0.30871432 0.0
Li2 Li+1 0 0.00000000 0.50000000 0.02500000 0.0
O1 O-2 0 0.00000000 0.24108132 1.000000000 0.0
